*SPEF "ieee 1481-1999"
*DESIGN "tiny_user_project"
*DATE "11:11:11 Fri 11 11, 1111"
*VENDOR "OpenRCX"
*PROGRAM "Parallel Extraction"
*VERSION "1.0"
*DESIGN_FLOW "NAME_SCOPE LOCAL" "PIN_CAP NONE"
*DIVIDER /
*DELIMITER :
*BUS_DELIMITER []
*T_UNIT 1 NS
*C_UNIT 1 PF
*R_UNIT 1 OHM
*L_UNIT 1 HENRY

*NAME_MAP
*1 io_in[0]
*2 io_in[10]
*3 io_in[11]
*4 io_in[12]
*5 io_in[13]
*6 io_in[14]
*7 io_in[15]
*8 io_in[16]
*9 io_in[17]
*10 io_in[18]
*11 io_in[19]
*12 io_in[1]
*13 io_in[20]
*14 io_in[21]
*15 io_in[22]
*16 io_in[23]
*17 io_in[24]
*18 io_in[25]
*19 io_in[26]
*20 io_in[27]
*21 io_in[28]
*22 io_in[29]
*23 io_in[2]
*24 io_in[30]
*25 io_in[31]
*26 io_in[32]
*27 io_in[33]
*28 io_in[34]
*29 io_in[35]
*30 io_in[36]
*31 io_in[37]
*32 io_in[3]
*33 io_in[4]
*34 io_in[5]
*35 io_in[6]
*36 io_in[7]
*37 io_in[8]
*38 io_in[9]
*39 net111
*40 net121
*41 net122
*42 net123
*43 net124
*44 net125
*45 net126
*46 net127
*47 net128
*48 net129
*49 net130
*50 net112
*51 net131
*52 net132
*53 net133
*54 net134
*55 net135
*56 net136
*57 net137
*58 net138
*59 net139
*60 net140
*61 net113
*62 net141
*63 net142
*64 net143
*65 net144
*66 net145
*67 net146
*68 net147
*69 net148
*70 net114
*71 net115
*72 net116
*73 net117
*74 net118
*75 net119
*76 net120
*77 net81
*78 net91
*79 net92
*80 net93
*81 net94
*82 net95
*83 net96
*84 io_out[16]
*85 io_out[17]
*86 io_out[18]
*87 io_out[19]
*88 net82
*89 io_out[20]
*90 io_out[21]
*91 io_out[22]
*92 io_out[23]
*93 net97
*94 net98
*95 net99
*96 net100
*97 net101
*98 net102
*99 net83
*100 net103
*101 net104
*102 net105
*103 net106
*104 net107
*105 net108
*106 net109
*107 net110
*108 net84
*109 net85
*110 net86
*111 net87
*112 net88
*113 net89
*114 net90
*115 la_data_in[0]
*116 la_data_in[10]
*117 la_data_in[11]
*118 la_data_in[12]
*119 la_data_in[13]
*120 la_data_in[14]
*121 la_data_in[15]
*122 la_data_in[16]
*123 la_data_in[17]
*124 la_data_in[18]
*125 la_data_in[19]
*126 la_data_in[1]
*127 la_data_in[20]
*128 la_data_in[21]
*129 la_data_in[22]
*130 la_data_in[23]
*131 la_data_in[24]
*132 la_data_in[25]
*133 la_data_in[26]
*134 la_data_in[27]
*135 la_data_in[28]
*136 la_data_in[29]
*137 la_data_in[2]
*138 la_data_in[30]
*139 la_data_in[31]
*140 la_data_in[32]
*141 la_data_in[33]
*142 la_data_in[34]
*143 la_data_in[35]
*144 la_data_in[36]
*145 la_data_in[37]
*146 la_data_in[38]
*147 la_data_in[39]
*148 la_data_in[3]
*149 la_data_in[40]
*150 la_data_in[41]
*151 la_data_in[42]
*152 la_data_in[43]
*153 la_data_in[44]
*154 la_data_in[45]
*155 la_data_in[46]
*156 la_data_in[47]
*157 la_data_in[48]
*158 la_data_in[49]
*159 la_data_in[4]
*160 la_data_in[50]
*161 la_data_in[51]
*162 la_data_in[52]
*163 la_data_in[53]
*164 la_data_in[54]
*165 la_data_in[55]
*166 la_data_in[56]
*167 la_data_in[57]
*168 la_data_in[58]
*169 la_data_in[59]
*170 la_data_in[5]
*171 la_data_in[60]
*172 la_data_in[61]
*173 la_data_in[62]
*174 la_data_in[63]
*175 la_data_in[6]
*176 la_data_in[7]
*177 la_data_in[8]
*178 la_data_in[9]
*179 net17
*180 net27
*181 net28
*182 net29
*183 net30
*184 net31
*185 net32
*186 net33
*187 net34
*188 net35
*189 net36
*190 net18
*191 net37
*192 net38
*193 net39
*194 net40
*195 net41
*196 net42
*197 net43
*198 net44
*199 net45
*200 net46
*201 net19
*202 net47
*203 net48
*204 net49
*205 net50
*206 net51
*207 net52
*208 net53
*209 net54
*210 net55
*211 net56
*212 net20
*213 net57
*214 net58
*215 net59
*216 net60
*217 net61
*218 net62
*219 net63
*220 net64
*221 net65
*222 net66
*223 net21
*224 net67
*225 net68
*226 net69
*227 net70
*228 net71
*229 net72
*230 net73
*231 net74
*232 net75
*233 net76
*234 net22
*235 net77
*236 net78
*237 net79
*238 net80
*239 net23
*240 net24
*241 net25
*242 net26
*243 la_oenb[0]
*244 la_oenb[10]
*245 la_oenb[11]
*246 la_oenb[12]
*247 la_oenb[13]
*248 la_oenb[14]
*249 la_oenb[15]
*250 la_oenb[16]
*251 la_oenb[17]
*252 la_oenb[18]
*253 la_oenb[19]
*254 la_oenb[1]
*255 la_oenb[20]
*256 la_oenb[21]
*257 la_oenb[22]
*258 la_oenb[23]
*259 la_oenb[24]
*260 la_oenb[25]
*261 la_oenb[26]
*262 la_oenb[27]
*263 la_oenb[28]
*264 la_oenb[29]
*265 la_oenb[2]
*266 la_oenb[30]
*267 la_oenb[31]
*268 la_oenb[32]
*269 la_oenb[33]
*270 la_oenb[34]
*271 la_oenb[35]
*272 la_oenb[36]
*273 la_oenb[37]
*274 la_oenb[38]
*275 la_oenb[39]
*276 la_oenb[3]
*277 la_oenb[40]
*278 la_oenb[41]
*279 la_oenb[42]
*280 la_oenb[43]
*281 la_oenb[44]
*282 la_oenb[45]
*283 la_oenb[46]
*284 la_oenb[47]
*285 la_oenb[48]
*286 la_oenb[49]
*287 la_oenb[4]
*288 la_oenb[50]
*289 la_oenb[51]
*290 la_oenb[52]
*291 la_oenb[53]
*292 la_oenb[54]
*293 la_oenb[55]
*294 la_oenb[56]
*295 la_oenb[57]
*296 la_oenb[58]
*297 la_oenb[59]
*298 la_oenb[5]
*299 la_oenb[60]
*300 la_oenb[61]
*301 la_oenb[62]
*302 la_oenb[63]
*303 la_oenb[6]
*304 la_oenb[7]
*305 la_oenb[8]
*306 la_oenb[9]
*307 user_clock2
*308 net149
*309 net150
*310 net151
*313 wb_clk_i
*314 wb_rst_i
*315 net152
*316 wbs_adr_i[0]
*317 wbs_adr_i[10]
*318 wbs_adr_i[11]
*319 wbs_adr_i[12]
*320 wbs_adr_i[13]
*321 wbs_adr_i[14]
*322 wbs_adr_i[15]
*323 wbs_adr_i[16]
*324 wbs_adr_i[17]
*325 wbs_adr_i[18]
*326 wbs_adr_i[19]
*327 wbs_adr_i[1]
*328 wbs_adr_i[20]
*329 wbs_adr_i[21]
*330 wbs_adr_i[22]
*331 wbs_adr_i[23]
*332 wbs_adr_i[24]
*333 wbs_adr_i[25]
*334 wbs_adr_i[26]
*335 wbs_adr_i[27]
*336 wbs_adr_i[28]
*337 wbs_adr_i[29]
*338 wbs_adr_i[2]
*339 wbs_adr_i[30]
*340 wbs_adr_i[31]
*341 wbs_adr_i[3]
*342 wbs_adr_i[4]
*343 wbs_adr_i[5]
*344 wbs_adr_i[6]
*345 wbs_adr_i[7]
*346 wbs_adr_i[8]
*347 wbs_adr_i[9]
*348 wbs_cyc_i
*349 wbs_dat_i[0]
*350 wbs_dat_i[10]
*351 wbs_dat_i[11]
*352 wbs_dat_i[12]
*353 wbs_dat_i[13]
*354 wbs_dat_i[14]
*355 wbs_dat_i[15]
*356 wbs_dat_i[16]
*357 wbs_dat_i[17]
*358 wbs_dat_i[18]
*359 wbs_dat_i[19]
*360 wbs_dat_i[1]
*361 wbs_dat_i[20]
*362 wbs_dat_i[21]
*363 wbs_dat_i[22]
*364 wbs_dat_i[23]
*365 wbs_dat_i[24]
*366 wbs_dat_i[25]
*367 wbs_dat_i[26]
*368 wbs_dat_i[27]
*369 wbs_dat_i[28]
*370 wbs_dat_i[29]
*371 wbs_dat_i[2]
*372 wbs_dat_i[30]
*373 wbs_dat_i[31]
*374 wbs_dat_i[3]
*375 wbs_dat_i[4]
*376 wbs_dat_i[5]
*377 wbs_dat_i[6]
*378 wbs_dat_i[7]
*379 wbs_dat_i[8]
*380 wbs_dat_i[9]
*381 net153
*382 net163
*383 net164
*384 net165
*385 net166
*386 net167
*387 net168
*388 net169
*389 net170
*390 net171
*391 net172
*392 net154
*393 net173
*394 net174
*395 net175
*396 net176
*397 net177
*398 net178
*399 net179
*400 net180
*401 net181
*402 net182
*403 net155
*404 net183
*405 net184
*406 net156
*407 net157
*408 net158
*409 net159
*410 net160
*411 net161
*412 net162
*413 wbs_sel_i[0]
*414 wbs_sel_i[1]
*415 wbs_sel_i[2]
*416 wbs_sel_i[3]
*417 wbs_stb_i
*418 wbs_we_i
*419 _000_
*420 _001_
*421 _002_
*422 _003_
*423 net1
*424 net10
*425 net11
*426 net12
*427 net13
*428 net14
*429 net15
*430 net16
*431 net2
*432 net3
*433 net4
*434 net5
*435 net6
*436 net7
*437 net8
*438 net9
*439 ANTENNA__004__I
*440 ANTENNA__005__A2
*441 ANTENNA__006__A2
*442 ANTENNA__007__I
*443 ANTENNA__008__I
*444 ANTENNA__009__I
*445 ANTENNA__010__A1
*446 ANTENNA__010__A2
*447 ANTENNA__011__A1
*448 ANTENNA__011__A2
*449 ANTENNA__011__B
*450 ANTENNA__013__A2
*451 ANTENNA__014__CLK
*452 ANTENNA__014__D
*453 ANTENNA__015__CLK
*454 ANTENNA__015__D
*455 ANTENNA_input1_I
*456 ANTENNA_input2_I
*457 ANTENNA_input3_I
*458 ANTENNA_input4_I
*459 ANTENNA_input5_I
*460 ANTENNA_input6_I
*461 ANTENNA_input7_I
*462 ANTENNA_input8_I
*463 ANTENNA_output10_I
*464 ANTENNA_output11_I
*465 ANTENNA_output12_I
*466 ANTENNA_output13_I
*467 ANTENNA_output14_I
*468 ANTENNA_output15_I
*469 ANTENNA_output16_I
*470 ANTENNA_output9_I
*471 FILLER_0_101
*472 FILLER_0_1011
*473 FILLER_0_1014
*474 FILLER_0_1017
*475 FILLER_0_1032
*476 FILLER_0_1038
*477 FILLER_0_1044
*478 FILLER_0_107
*479 FILLER_0_11
*480 FILLER_0_115
*481 FILLER_0_119
*482 FILLER_0_135
*483 FILLER_0_139
*484 FILLER_0_142
*485 FILLER_0_174
*486 FILLER_0_177
*487 FILLER_0_2
*488 FILLER_0_209
*489 FILLER_0_212
*490 FILLER_0_228
*491 FILLER_0_233
*492 FILLER_0_237
*493 FILLER_0_239
*494 FILLER_0_244
*495 FILLER_0_247
*496 FILLER_0_251
*497 FILLER_0_257
*498 FILLER_0_263
*499 FILLER_0_27
*500 FILLER_0_279
*501 FILLER_0_282
*502 FILLER_0_287
*503 FILLER_0_299
*504 FILLER_0_317
*505 FILLER_0_323
*506 FILLER_0_329
*507 FILLER_0_345
*508 FILLER_0_349
*509 FILLER_0_352
*510 FILLER_0_368
*511 FILLER_0_37
*512 FILLER_0_372
*513 FILLER_0_377
*514 FILLER_0_387
*515 FILLER_0_395
*516 FILLER_0_411
*517 FILLER_0_419
*518 FILLER_0_422
*519 FILLER_0_426
*520 FILLER_0_431
*521 FILLER_0_447
*522 FILLER_0_449
*523 FILLER_0_454
*524 FILLER_0_457
*525 FILLER_0_462
*526 FILLER_0_466
*527 FILLER_0_468
*528 FILLER_0_473
*529 FILLER_0_485
*530 FILLER_0_489
*531 FILLER_0_492
*532 FILLER_0_508
*533 FILLER_0_516
*534 FILLER_0_521
*535 FILLER_0_527
*536 FILLER_0_53
*537 FILLER_0_543
*538 FILLER_0_551
*539 FILLER_0_559
*540 FILLER_0_562
*541 FILLER_0_59
*542 FILLER_0_594
*543 FILLER_0_597
*544 FILLER_0_6
*545 FILLER_0_602
*546 FILLER_0_608
*547 FILLER_0_612
*548 FILLER_0_617
*549 FILLER_0_625
*550 FILLER_0_629
*551 FILLER_0_632
*552 FILLER_0_65
*553 FILLER_0_664
*554 FILLER_0_667
*555 FILLER_0_672
*556 FILLER_0_676
*557 FILLER_0_678
*558 FILLER_0_683
*559 FILLER_0_69
*560 FILLER_0_695
*561 FILLER_0_699
*562 FILLER_0_702
*563 FILLER_0_718
*564 FILLER_0_72
*565 FILLER_0_726
*566 FILLER_0_731
*567 FILLER_0_737
*568 FILLER_0_749
*569 FILLER_0_761
*570 FILLER_0_769
*571 FILLER_0_77
*572 FILLER_0_772
*573 FILLER_0_777
*574 FILLER_0_793
*575 FILLER_0_801
*576 FILLER_0_807
*577 FILLER_0_827
*578 FILLER_0_835
*579 FILLER_0_839
*580 FILLER_0_842
*581 FILLER_0_874
*582 FILLER_0_877
*583 FILLER_0_885
*584 FILLER_0_893
*585 FILLER_0_909
*586 FILLER_0_912
*587 FILLER_0_93
*588 FILLER_0_944
*589 FILLER_0_947
*590 FILLER_0_952
*591 FILLER_0_960
*592 FILLER_0_964
*593 FILLER_0_966
*594 FILLER_0_971
*595 FILLER_0_979
*596 FILLER_0_982
*597 FILLER_0_987
*598 FILLER_0_995
*599 FILLER_100_101
*600 FILLER_100_1024
*601 FILLER_100_1028
*602 FILLER_100_1031
*603 FILLER_100_1039
*604 FILLER_100_1043
*605 FILLER_100_105
*606 FILLER_100_108
*607 FILLER_100_172
*608 FILLER_100_176
*609 FILLER_100_179
*610 FILLER_100_2
*611 FILLER_100_243
*612 FILLER_100_247
*613 FILLER_100_250
*614 FILLER_100_314
*615 FILLER_100_318
*616 FILLER_100_321
*617 FILLER_100_34
*618 FILLER_100_37
*619 FILLER_100_385
*620 FILLER_100_389
*621 FILLER_100_392
*622 FILLER_100_456
*623 FILLER_100_460
*624 FILLER_100_463
*625 FILLER_100_527
*626 FILLER_100_531
*627 FILLER_100_534
*628 FILLER_100_598
*629 FILLER_100_602
*630 FILLER_100_605
*631 FILLER_100_669
*632 FILLER_100_673
*633 FILLER_100_676
*634 FILLER_100_740
*635 FILLER_100_744
*636 FILLER_100_747
*637 FILLER_100_811
*638 FILLER_100_815
*639 FILLER_100_818
*640 FILLER_100_882
*641 FILLER_100_886
*642 FILLER_100_889
*643 FILLER_100_953
*644 FILLER_100_957
*645 FILLER_100_960
*646 FILLER_101_1028
*647 FILLER_101_1036
*648 FILLER_101_1044
*649 FILLER_101_137
*650 FILLER_101_141
*651 FILLER_101_144
*652 FILLER_101_2
*653 FILLER_101_208
*654 FILLER_101_212
*655 FILLER_101_215
*656 FILLER_101_279
*657 FILLER_101_283
*658 FILLER_101_286
*659 FILLER_101_350
*660 FILLER_101_354
*661 FILLER_101_357
*662 FILLER_101_421
*663 FILLER_101_425
*664 FILLER_101_428
*665 FILLER_101_492
*666 FILLER_101_496
*667 FILLER_101_499
*668 FILLER_101_563
*669 FILLER_101_567
*670 FILLER_101_570
*671 FILLER_101_634
*672 FILLER_101_638
*673 FILLER_101_641
*674 FILLER_101_66
*675 FILLER_101_70
*676 FILLER_101_705
*677 FILLER_101_709
*678 FILLER_101_712
*679 FILLER_101_73
*680 FILLER_101_776
*681 FILLER_101_780
*682 FILLER_101_783
*683 FILLER_101_847
*684 FILLER_101_851
*685 FILLER_101_854
*686 FILLER_101_918
*687 FILLER_101_922
*688 FILLER_101_925
*689 FILLER_101_989
*690 FILLER_101_993
*691 FILLER_101_996
*692 FILLER_102_101
*693 FILLER_102_1024
*694 FILLER_102_1028
*695 FILLER_102_1031
*696 FILLER_102_1039
*697 FILLER_102_1043
*698 FILLER_102_105
*699 FILLER_102_108
*700 FILLER_102_13
*701 FILLER_102_172
*702 FILLER_102_176
*703 FILLER_102_179
*704 FILLER_102_2
*705 FILLER_102_243
*706 FILLER_102_247
*707 FILLER_102_250
*708 FILLER_102_29
*709 FILLER_102_314
*710 FILLER_102_318
*711 FILLER_102_321
*712 FILLER_102_33
*713 FILLER_102_37
*714 FILLER_102_385
*715 FILLER_102_389
*716 FILLER_102_392
*717 FILLER_102_456
*718 FILLER_102_460
*719 FILLER_102_463
*720 FILLER_102_527
*721 FILLER_102_531
*722 FILLER_102_534
*723 FILLER_102_598
*724 FILLER_102_602
*725 FILLER_102_605
*726 FILLER_102_669
*727 FILLER_102_673
*728 FILLER_102_676
*729 FILLER_102_7
*730 FILLER_102_740
*731 FILLER_102_744
*732 FILLER_102_747
*733 FILLER_102_811
*734 FILLER_102_815
*735 FILLER_102_818
*736 FILLER_102_882
*737 FILLER_102_886
*738 FILLER_102_889
*739 FILLER_102_953
*740 FILLER_102_957
*741 FILLER_102_960
*742 FILLER_103_1028
*743 FILLER_103_1036
*744 FILLER_103_1044
*745 FILLER_103_137
*746 FILLER_103_141
*747 FILLER_103_144
*748 FILLER_103_2
*749 FILLER_103_208
*750 FILLER_103_212
*751 FILLER_103_215
*752 FILLER_103_279
*753 FILLER_103_283
*754 FILLER_103_286
*755 FILLER_103_350
*756 FILLER_103_354
*757 FILLER_103_357
*758 FILLER_103_421
*759 FILLER_103_425
*760 FILLER_103_428
*761 FILLER_103_492
*762 FILLER_103_496
*763 FILLER_103_499
*764 FILLER_103_563
*765 FILLER_103_567
*766 FILLER_103_570
*767 FILLER_103_634
*768 FILLER_103_638
*769 FILLER_103_641
*770 FILLER_103_66
*771 FILLER_103_70
*772 FILLER_103_705
*773 FILLER_103_709
*774 FILLER_103_712
*775 FILLER_103_73
*776 FILLER_103_776
*777 FILLER_103_780
*778 FILLER_103_783
*779 FILLER_103_847
*780 FILLER_103_851
*781 FILLER_103_854
*782 FILLER_103_918
*783 FILLER_103_922
*784 FILLER_103_925
*785 FILLER_103_989
*786 FILLER_103_993
*787 FILLER_103_996
*788 FILLER_104_101
*789 FILLER_104_1024
*790 FILLER_104_1028
*791 FILLER_104_1031
*792 FILLER_104_1039
*793 FILLER_104_1043
*794 FILLER_104_105
*795 FILLER_104_108
*796 FILLER_104_17
*797 FILLER_104_172
*798 FILLER_104_176
*799 FILLER_104_179
*800 FILLER_104_2
*801 FILLER_104_21
*802 FILLER_104_243
*803 FILLER_104_247
*804 FILLER_104_250
*805 FILLER_104_29
*806 FILLER_104_314
*807 FILLER_104_318
*808 FILLER_104_321
*809 FILLER_104_33
*810 FILLER_104_37
*811 FILLER_104_385
*812 FILLER_104_389
*813 FILLER_104_392
*814 FILLER_104_456
*815 FILLER_104_460
*816 FILLER_104_463
*817 FILLER_104_527
*818 FILLER_104_531
*819 FILLER_104_534
*820 FILLER_104_598
*821 FILLER_104_602
*822 FILLER_104_605
*823 FILLER_104_669
*824 FILLER_104_673
*825 FILLER_104_676
*826 FILLER_104_740
*827 FILLER_104_744
*828 FILLER_104_747
*829 FILLER_104_811
*830 FILLER_104_815
*831 FILLER_104_818
*832 FILLER_104_882
*833 FILLER_104_886
*834 FILLER_104_889
*835 FILLER_104_953
*836 FILLER_104_957
*837 FILLER_104_960
*838 FILLER_105_1028
*839 FILLER_105_1044
*840 FILLER_105_137
*841 FILLER_105_141
*842 FILLER_105_144
*843 FILLER_105_2
*844 FILLER_105_208
*845 FILLER_105_212
*846 FILLER_105_215
*847 FILLER_105_279
*848 FILLER_105_283
*849 FILLER_105_286
*850 FILLER_105_350
*851 FILLER_105_354
*852 FILLER_105_357
*853 FILLER_105_421
*854 FILLER_105_425
*855 FILLER_105_428
*856 FILLER_105_492
*857 FILLER_105_496
*858 FILLER_105_499
*859 FILLER_105_563
*860 FILLER_105_567
*861 FILLER_105_570
*862 FILLER_105_634
*863 FILLER_105_638
*864 FILLER_105_641
*865 FILLER_105_66
*866 FILLER_105_70
*867 FILLER_105_705
*868 FILLER_105_709
*869 FILLER_105_712
*870 FILLER_105_73
*871 FILLER_105_776
*872 FILLER_105_780
*873 FILLER_105_783
*874 FILLER_105_847
*875 FILLER_105_851
*876 FILLER_105_854
*877 FILLER_105_918
*878 FILLER_105_922
*879 FILLER_105_925
*880 FILLER_105_989
*881 FILLER_105_993
*882 FILLER_105_996
*883 FILLER_106_101
*884 FILLER_106_1024
*885 FILLER_106_1028
*886 FILLER_106_1031
*887 FILLER_106_1039
*888 FILLER_106_1043
*889 FILLER_106_105
*890 FILLER_106_108
*891 FILLER_106_172
*892 FILLER_106_176
*893 FILLER_106_179
*894 FILLER_106_2
*895 FILLER_106_243
*896 FILLER_106_247
*897 FILLER_106_250
*898 FILLER_106_314
*899 FILLER_106_318
*900 FILLER_106_321
*901 FILLER_106_34
*902 FILLER_106_37
*903 FILLER_106_385
*904 FILLER_106_389
*905 FILLER_106_392
*906 FILLER_106_456
*907 FILLER_106_460
*908 FILLER_106_463
*909 FILLER_106_527
*910 FILLER_106_531
*911 FILLER_106_534
*912 FILLER_106_598
*913 FILLER_106_602
*914 FILLER_106_605
*915 FILLER_106_669
*916 FILLER_106_673
*917 FILLER_106_676
*918 FILLER_106_740
*919 FILLER_106_744
*920 FILLER_106_747
*921 FILLER_106_811
*922 FILLER_106_815
*923 FILLER_106_818
*924 FILLER_106_882
*925 FILLER_106_886
*926 FILLER_106_889
*927 FILLER_106_953
*928 FILLER_106_957
*929 FILLER_106_960
*930 FILLER_107_1028
*931 FILLER_107_1044
*932 FILLER_107_137
*933 FILLER_107_141
*934 FILLER_107_144
*935 FILLER_107_2
*936 FILLER_107_208
*937 FILLER_107_212
*938 FILLER_107_215
*939 FILLER_107_279
*940 FILLER_107_283
*941 FILLER_107_286
*942 FILLER_107_350
*943 FILLER_107_354
*944 FILLER_107_357
*945 FILLER_107_421
*946 FILLER_107_425
*947 FILLER_107_428
*948 FILLER_107_492
*949 FILLER_107_496
*950 FILLER_107_499
*951 FILLER_107_563
*952 FILLER_107_567
*953 FILLER_107_570
*954 FILLER_107_634
*955 FILLER_107_638
*956 FILLER_107_641
*957 FILLER_107_66
*958 FILLER_107_70
*959 FILLER_107_705
*960 FILLER_107_709
*961 FILLER_107_712
*962 FILLER_107_73
*963 FILLER_107_776
*964 FILLER_107_780
*965 FILLER_107_783
*966 FILLER_107_847
*967 FILLER_107_851
*968 FILLER_107_854
*969 FILLER_107_918
*970 FILLER_107_922
*971 FILLER_107_925
*972 FILLER_107_989
*973 FILLER_107_993
*974 FILLER_107_996
*975 FILLER_108_101
*976 FILLER_108_1024
*977 FILLER_108_1028
*978 FILLER_108_1031
*979 FILLER_108_1039
*980 FILLER_108_1044
*981 FILLER_108_105
*982 FILLER_108_108
*983 FILLER_108_172
*984 FILLER_108_176
*985 FILLER_108_179
*986 FILLER_108_2
*987 FILLER_108_243
*988 FILLER_108_247
*989 FILLER_108_250
*990 FILLER_108_314
*991 FILLER_108_318
*992 FILLER_108_321
*993 FILLER_108_34
*994 FILLER_108_37
*995 FILLER_108_385
*996 FILLER_108_389
*997 FILLER_108_392
*998 FILLER_108_456
*999 FILLER_108_460
*1000 FILLER_108_463
*1001 FILLER_108_527
*1002 FILLER_108_531
*1003 FILLER_108_534
*1004 FILLER_108_598
*1005 FILLER_108_602
*1006 FILLER_108_605
*1007 FILLER_108_669
*1008 FILLER_108_673
*1009 FILLER_108_676
*1010 FILLER_108_740
*1011 FILLER_108_744
*1012 FILLER_108_747
*1013 FILLER_108_811
*1014 FILLER_108_815
*1015 FILLER_108_818
*1016 FILLER_108_882
*1017 FILLER_108_886
*1018 FILLER_108_889
*1019 FILLER_108_953
*1020 FILLER_108_957
*1021 FILLER_108_960
*1022 FILLER_109_1028
*1023 FILLER_109_1044
*1024 FILLER_109_137
*1025 FILLER_109_141
*1026 FILLER_109_144
*1027 FILLER_109_2
*1028 FILLER_109_208
*1029 FILLER_109_212
*1030 FILLER_109_215
*1031 FILLER_109_279
*1032 FILLER_109_283
*1033 FILLER_109_286
*1034 FILLER_109_350
*1035 FILLER_109_354
*1036 FILLER_109_357
*1037 FILLER_109_421
*1038 FILLER_109_425
*1039 FILLER_109_428
*1040 FILLER_109_492
*1041 FILLER_109_496
*1042 FILLER_109_499
*1043 FILLER_109_563
*1044 FILLER_109_567
*1045 FILLER_109_570
*1046 FILLER_109_634
*1047 FILLER_109_638
*1048 FILLER_109_641
*1049 FILLER_109_66
*1050 FILLER_109_70
*1051 FILLER_109_705
*1052 FILLER_109_709
*1053 FILLER_109_712
*1054 FILLER_109_73
*1055 FILLER_109_776
*1056 FILLER_109_780
*1057 FILLER_109_783
*1058 FILLER_109_847
*1059 FILLER_109_851
*1060 FILLER_109_854
*1061 FILLER_109_918
*1062 FILLER_109_922
*1063 FILLER_109_925
*1064 FILLER_109_989
*1065 FILLER_109_993
*1066 FILLER_109_996
*1067 FILLER_10_101
*1068 FILLER_10_1024
*1069 FILLER_10_1028
*1070 FILLER_10_1031
*1071 FILLER_10_1039
*1072 FILLER_10_1043
*1073 FILLER_10_105
*1074 FILLER_10_108
*1075 FILLER_10_172
*1076 FILLER_10_176
*1077 FILLER_10_179
*1078 FILLER_10_2
*1079 FILLER_10_23
*1080 FILLER_10_243
*1081 FILLER_10_247
*1082 FILLER_10_250
*1083 FILLER_10_31
*1084 FILLER_10_314
*1085 FILLER_10_318
*1086 FILLER_10_321
*1087 FILLER_10_37
*1088 FILLER_10_385
*1089 FILLER_10_389
*1090 FILLER_10_392
*1091 FILLER_10_456
*1092 FILLER_10_460
*1093 FILLER_10_463
*1094 FILLER_10_527
*1095 FILLER_10_531
*1096 FILLER_10_534
*1097 FILLER_10_598
*1098 FILLER_10_602
*1099 FILLER_10_605
*1100 FILLER_10_669
*1101 FILLER_10_673
*1102 FILLER_10_676
*1103 FILLER_10_7
*1104 FILLER_10_740
*1105 FILLER_10_744
*1106 FILLER_10_747
*1107 FILLER_10_811
*1108 FILLER_10_815
*1109 FILLER_10_818
*1110 FILLER_10_882
*1111 FILLER_10_886
*1112 FILLER_10_889
*1113 FILLER_10_953
*1114 FILLER_10_957
*1115 FILLER_10_960
*1116 FILLER_110_101
*1117 FILLER_110_1024
*1118 FILLER_110_1028
*1119 FILLER_110_1031
*1120 FILLER_110_1039
*1121 FILLER_110_1043
*1122 FILLER_110_105
*1123 FILLER_110_108
*1124 FILLER_110_172
*1125 FILLER_110_176
*1126 FILLER_110_179
*1127 FILLER_110_2
*1128 FILLER_110_21
*1129 FILLER_110_243
*1130 FILLER_110_247
*1131 FILLER_110_250
*1132 FILLER_110_29
*1133 FILLER_110_314
*1134 FILLER_110_318
*1135 FILLER_110_321
*1136 FILLER_110_33
*1137 FILLER_110_37
*1138 FILLER_110_385
*1139 FILLER_110_389
*1140 FILLER_110_392
*1141 FILLER_110_456
*1142 FILLER_110_460
*1143 FILLER_110_463
*1144 FILLER_110_5
*1145 FILLER_110_527
*1146 FILLER_110_531
*1147 FILLER_110_534
*1148 FILLER_110_598
*1149 FILLER_110_602
*1150 FILLER_110_605
*1151 FILLER_110_669
*1152 FILLER_110_673
*1153 FILLER_110_676
*1154 FILLER_110_740
*1155 FILLER_110_744
*1156 FILLER_110_747
*1157 FILLER_110_811
*1158 FILLER_110_815
*1159 FILLER_110_818
*1160 FILLER_110_882
*1161 FILLER_110_886
*1162 FILLER_110_889
*1163 FILLER_110_953
*1164 FILLER_110_957
*1165 FILLER_110_960
*1166 FILLER_111_1028
*1167 FILLER_111_1044
*1168 FILLER_111_137
*1169 FILLER_111_141
*1170 FILLER_111_144
*1171 FILLER_111_19
*1172 FILLER_111_2
*1173 FILLER_111_208
*1174 FILLER_111_212
*1175 FILLER_111_215
*1176 FILLER_111_279
*1177 FILLER_111_283
*1178 FILLER_111_286
*1179 FILLER_111_350
*1180 FILLER_111_354
*1181 FILLER_111_357
*1182 FILLER_111_421
*1183 FILLER_111_425
*1184 FILLER_111_428
*1185 FILLER_111_492
*1186 FILLER_111_496
*1187 FILLER_111_499
*1188 FILLER_111_51
*1189 FILLER_111_563
*1190 FILLER_111_567
*1191 FILLER_111_570
*1192 FILLER_111_634
*1193 FILLER_111_638
*1194 FILLER_111_641
*1195 FILLER_111_67
*1196 FILLER_111_705
*1197 FILLER_111_709
*1198 FILLER_111_712
*1199 FILLER_111_73
*1200 FILLER_111_776
*1201 FILLER_111_780
*1202 FILLER_111_783
*1203 FILLER_111_847
*1204 FILLER_111_851
*1205 FILLER_111_854
*1206 FILLER_111_918
*1207 FILLER_111_922
*1208 FILLER_111_925
*1209 FILLER_111_989
*1210 FILLER_111_993
*1211 FILLER_111_996
*1212 FILLER_112_101
*1213 FILLER_112_1024
*1214 FILLER_112_1028
*1215 FILLER_112_1031
*1216 FILLER_112_1039
*1217 FILLER_112_1044
*1218 FILLER_112_105
*1219 FILLER_112_108
*1220 FILLER_112_172
*1221 FILLER_112_176
*1222 FILLER_112_179
*1223 FILLER_112_2
*1224 FILLER_112_23
*1225 FILLER_112_243
*1226 FILLER_112_247
*1227 FILLER_112_250
*1228 FILLER_112_31
*1229 FILLER_112_314
*1230 FILLER_112_318
*1231 FILLER_112_321
*1232 FILLER_112_37
*1233 FILLER_112_385
*1234 FILLER_112_389
*1235 FILLER_112_392
*1236 FILLER_112_456
*1237 FILLER_112_460
*1238 FILLER_112_463
*1239 FILLER_112_527
*1240 FILLER_112_531
*1241 FILLER_112_534
*1242 FILLER_112_598
*1243 FILLER_112_602
*1244 FILLER_112_605
*1245 FILLER_112_669
*1246 FILLER_112_673
*1247 FILLER_112_676
*1248 FILLER_112_7
*1249 FILLER_112_740
*1250 FILLER_112_744
*1251 FILLER_112_747
*1252 FILLER_112_811
*1253 FILLER_112_815
*1254 FILLER_112_818
*1255 FILLER_112_882
*1256 FILLER_112_886
*1257 FILLER_112_889
*1258 FILLER_112_953
*1259 FILLER_112_957
*1260 FILLER_112_960
*1261 FILLER_113_1028
*1262 FILLER_113_1044
*1263 FILLER_113_137
*1264 FILLER_113_141
*1265 FILLER_113_144
*1266 FILLER_113_2
*1267 FILLER_113_208
*1268 FILLER_113_212
*1269 FILLER_113_215
*1270 FILLER_113_279
*1271 FILLER_113_283
*1272 FILLER_113_286
*1273 FILLER_113_350
*1274 FILLER_113_354
*1275 FILLER_113_357
*1276 FILLER_113_421
*1277 FILLER_113_425
*1278 FILLER_113_428
*1279 FILLER_113_492
*1280 FILLER_113_496
*1281 FILLER_113_499
*1282 FILLER_113_563
*1283 FILLER_113_567
*1284 FILLER_113_570
*1285 FILLER_113_634
*1286 FILLER_113_638
*1287 FILLER_113_641
*1288 FILLER_113_66
*1289 FILLER_113_70
*1290 FILLER_113_705
*1291 FILLER_113_709
*1292 FILLER_113_712
*1293 FILLER_113_73
*1294 FILLER_113_776
*1295 FILLER_113_780
*1296 FILLER_113_783
*1297 FILLER_113_847
*1298 FILLER_113_851
*1299 FILLER_113_854
*1300 FILLER_113_918
*1301 FILLER_113_922
*1302 FILLER_113_925
*1303 FILLER_113_989
*1304 FILLER_113_993
*1305 FILLER_113_996
*1306 FILLER_114_101
*1307 FILLER_114_1024
*1308 FILLER_114_1028
*1309 FILLER_114_1031
*1310 FILLER_114_1039
*1311 FILLER_114_1043
*1312 FILLER_114_105
*1313 FILLER_114_108
*1314 FILLER_114_172
*1315 FILLER_114_176
*1316 FILLER_114_179
*1317 FILLER_114_2
*1318 FILLER_114_23
*1319 FILLER_114_243
*1320 FILLER_114_247
*1321 FILLER_114_250
*1322 FILLER_114_31
*1323 FILLER_114_314
*1324 FILLER_114_318
*1325 FILLER_114_321
*1326 FILLER_114_37
*1327 FILLER_114_385
*1328 FILLER_114_389
*1329 FILLER_114_392
*1330 FILLER_114_456
*1331 FILLER_114_460
*1332 FILLER_114_463
*1333 FILLER_114_527
*1334 FILLER_114_531
*1335 FILLER_114_534
*1336 FILLER_114_598
*1337 FILLER_114_602
*1338 FILLER_114_605
*1339 FILLER_114_669
*1340 FILLER_114_673
*1341 FILLER_114_676
*1342 FILLER_114_7
*1343 FILLER_114_740
*1344 FILLER_114_744
*1345 FILLER_114_747
*1346 FILLER_114_811
*1347 FILLER_114_815
*1348 FILLER_114_818
*1349 FILLER_114_882
*1350 FILLER_114_886
*1351 FILLER_114_889
*1352 FILLER_114_953
*1353 FILLER_114_957
*1354 FILLER_114_960
*1355 FILLER_115_1028
*1356 FILLER_115_1044
*1357 FILLER_115_137
*1358 FILLER_115_141
*1359 FILLER_115_144
*1360 FILLER_115_2
*1361 FILLER_115_208
*1362 FILLER_115_212
*1363 FILLER_115_215
*1364 FILLER_115_279
*1365 FILLER_115_283
*1366 FILLER_115_286
*1367 FILLER_115_350
*1368 FILLER_115_354
*1369 FILLER_115_357
*1370 FILLER_115_421
*1371 FILLER_115_425
*1372 FILLER_115_428
*1373 FILLER_115_492
*1374 FILLER_115_496
*1375 FILLER_115_499
*1376 FILLER_115_563
*1377 FILLER_115_567
*1378 FILLER_115_570
*1379 FILLER_115_634
*1380 FILLER_115_638
*1381 FILLER_115_641
*1382 FILLER_115_66
*1383 FILLER_115_70
*1384 FILLER_115_705
*1385 FILLER_115_709
*1386 FILLER_115_712
*1387 FILLER_115_73
*1388 FILLER_115_776
*1389 FILLER_115_780
*1390 FILLER_115_783
*1391 FILLER_115_847
*1392 FILLER_115_851
*1393 FILLER_115_854
*1394 FILLER_115_918
*1395 FILLER_115_922
*1396 FILLER_115_925
*1397 FILLER_115_989
*1398 FILLER_115_993
*1399 FILLER_115_996
*1400 FILLER_116_101
*1401 FILLER_116_1024
*1402 FILLER_116_1028
*1403 FILLER_116_1031
*1404 FILLER_116_1039
*1405 FILLER_116_1043
*1406 FILLER_116_105
*1407 FILLER_116_108
*1408 FILLER_116_172
*1409 FILLER_116_176
*1410 FILLER_116_179
*1411 FILLER_116_2
*1412 FILLER_116_243
*1413 FILLER_116_247
*1414 FILLER_116_250
*1415 FILLER_116_314
*1416 FILLER_116_318
*1417 FILLER_116_321
*1418 FILLER_116_34
*1419 FILLER_116_37
*1420 FILLER_116_385
*1421 FILLER_116_389
*1422 FILLER_116_392
*1423 FILLER_116_456
*1424 FILLER_116_460
*1425 FILLER_116_463
*1426 FILLER_116_527
*1427 FILLER_116_531
*1428 FILLER_116_534
*1429 FILLER_116_598
*1430 FILLER_116_602
*1431 FILLER_116_605
*1432 FILLER_116_669
*1433 FILLER_116_673
*1434 FILLER_116_676
*1435 FILLER_116_740
*1436 FILLER_116_744
*1437 FILLER_116_747
*1438 FILLER_116_811
*1439 FILLER_116_815
*1440 FILLER_116_818
*1441 FILLER_116_882
*1442 FILLER_116_886
*1443 FILLER_116_889
*1444 FILLER_116_953
*1445 FILLER_116_957
*1446 FILLER_116_960
*1447 FILLER_117_1028
*1448 FILLER_117_1044
*1449 FILLER_117_137
*1450 FILLER_117_141
*1451 FILLER_117_144
*1452 FILLER_117_2
*1453 FILLER_117_208
*1454 FILLER_117_212
*1455 FILLER_117_215
*1456 FILLER_117_279
*1457 FILLER_117_283
*1458 FILLER_117_286
*1459 FILLER_117_350
*1460 FILLER_117_354
*1461 FILLER_117_357
*1462 FILLER_117_421
*1463 FILLER_117_425
*1464 FILLER_117_428
*1465 FILLER_117_492
*1466 FILLER_117_496
*1467 FILLER_117_499
*1468 FILLER_117_563
*1469 FILLER_117_567
*1470 FILLER_117_570
*1471 FILLER_117_634
*1472 FILLER_117_638
*1473 FILLER_117_641
*1474 FILLER_117_7
*1475 FILLER_117_705
*1476 FILLER_117_709
*1477 FILLER_117_712
*1478 FILLER_117_73
*1479 FILLER_117_776
*1480 FILLER_117_780
*1481 FILLER_117_783
*1482 FILLER_117_847
*1483 FILLER_117_851
*1484 FILLER_117_854
*1485 FILLER_117_918
*1486 FILLER_117_922
*1487 FILLER_117_925
*1488 FILLER_117_989
*1489 FILLER_117_993
*1490 FILLER_117_996
*1491 FILLER_118_101
*1492 FILLER_118_1024
*1493 FILLER_118_1028
*1494 FILLER_118_1031
*1495 FILLER_118_1039
*1496 FILLER_118_1044
*1497 FILLER_118_105
*1498 FILLER_118_108
*1499 FILLER_118_172
*1500 FILLER_118_176
*1501 FILLER_118_179
*1502 FILLER_118_2
*1503 FILLER_118_243
*1504 FILLER_118_247
*1505 FILLER_118_250
*1506 FILLER_118_314
*1507 FILLER_118_318
*1508 FILLER_118_321
*1509 FILLER_118_34
*1510 FILLER_118_37
*1511 FILLER_118_385
*1512 FILLER_118_389
*1513 FILLER_118_392
*1514 FILLER_118_456
*1515 FILLER_118_460
*1516 FILLER_118_463
*1517 FILLER_118_527
*1518 FILLER_118_531
*1519 FILLER_118_534
*1520 FILLER_118_598
*1521 FILLER_118_602
*1522 FILLER_118_605
*1523 FILLER_118_669
*1524 FILLER_118_673
*1525 FILLER_118_676
*1526 FILLER_118_740
*1527 FILLER_118_744
*1528 FILLER_118_747
*1529 FILLER_118_811
*1530 FILLER_118_815
*1531 FILLER_118_818
*1532 FILLER_118_882
*1533 FILLER_118_886
*1534 FILLER_118_889
*1535 FILLER_118_953
*1536 FILLER_118_957
*1537 FILLER_118_960
*1538 FILLER_119_1028
*1539 FILLER_119_1044
*1540 FILLER_119_137
*1541 FILLER_119_141
*1542 FILLER_119_144
*1543 FILLER_119_2
*1544 FILLER_119_208
*1545 FILLER_119_212
*1546 FILLER_119_215
*1547 FILLER_119_279
*1548 FILLER_119_283
*1549 FILLER_119_286
*1550 FILLER_119_350
*1551 FILLER_119_354
*1552 FILLER_119_357
*1553 FILLER_119_421
*1554 FILLER_119_425
*1555 FILLER_119_428
*1556 FILLER_119_492
*1557 FILLER_119_496
*1558 FILLER_119_499
*1559 FILLER_119_563
*1560 FILLER_119_567
*1561 FILLER_119_570
*1562 FILLER_119_634
*1563 FILLER_119_638
*1564 FILLER_119_641
*1565 FILLER_119_7
*1566 FILLER_119_705
*1567 FILLER_119_709
*1568 FILLER_119_712
*1569 FILLER_119_73
*1570 FILLER_119_776
*1571 FILLER_119_780
*1572 FILLER_119_783
*1573 FILLER_119_847
*1574 FILLER_119_851
*1575 FILLER_119_854
*1576 FILLER_119_918
*1577 FILLER_119_922
*1578 FILLER_119_925
*1579 FILLER_119_989
*1580 FILLER_119_993
*1581 FILLER_119_996
*1582 FILLER_11_1028
*1583 FILLER_11_1036
*1584 FILLER_11_1044
*1585 FILLER_11_137