*SPEF "ieee 1481-1999"
*DESIGN "tiny_user_project"
*DATE "11:11:11 Fri 11 11, 1111"
*VENDOR "OpenRCX"
*PROGRAM "Parallel Extraction"
*VERSION "1.0"
*DESIGN_FLOW "NAME_SCOPE LOCAL" "PIN_CAP NONE"
*DIVIDER /
*DELIMITER :
*BUS_DELIMITER []
*T_UNIT 1 NS
*C_UNIT 1 PF
*R_UNIT 1 OHM
*L_UNIT 1 HENRY

*NAME_MAP
*1 io_in[0]
*2 io_in[10]
*3 io_in[11]
*4 io_in[12]
*5 io_in[13]
*6 io_in[14]
*7 io_in[15]
*8 io_in[16]
*9 io_in[17]
*10 io_in[18]
*11 io_in[19]
*12 io_in[1]
*13 io_in[20]
*14 io_in[21]
*15 io_in[22]
*16 io_in[23]
*17 io_in[24]
*18 io_in[25]
*19 io_in[26]
*20 io_in[27]
*21 io_in[28]
*22 io_in[29]
*23 io_in[2]
*24 io_in[30]
*25 io_in[31]
*26 io_in[32]
*27 io_in[33]
*28 io_in[34]
*29 io_in[35]
*30 io_in[36]
*31 io_in[37]
*32 io_in[3]
*33 io_in[4]
*34 io_in[5]
*35 io_in[6]
*36 io_in[7]
*37 io_in[8]
*38 io_in[9]
*39 net111
*40 net121
*41 net122
*42 net123
*43 net124
*44 net125
*45 net126
*46 net127
*47 net128
*48 net129
*49 net130
*50 net112
*51 net131
*52 net132
*53 net133
*54 net134
*55 net135
*56 net136
*57 net137
*58 net138
*59 net139
*60 net140
*61 net113
*62 net141
*63 net142
*64 net143
*65 net144
*66 net145
*67 net146
*68 net147
*69 net148
*70 net114
*71 net115
*72 net116
*73 net117
*74 net118
*75 net119
*76 net120
*77 net81
*78 net91
*79 net92
*80 net93
*81 net94
*82 net95
*83 net96
*84 io_out[16]
*85 io_out[17]
*86 io_out[18]
*87 io_out[19]
*88 net82
*89 io_out[20]
*90 io_out[21]
*91 io_out[22]
*92 io_out[23]
*93 net97
*94 net98
*95 net99
*96 net100
*97 net101
*98 net102
*99 net83
*100 net103
*101 net104
*102 net105
*103 net106
*104 net107
*105 net108
*106 net109
*107 net110
*108 net84
*109 net85
*110 net86
*111 net87
*112 net88
*113 net89
*114 net90
*115 la_data_in[0]
*116 la_data_in[10]
*117 la_data_in[11]
*118 la_data_in[12]
*119 la_data_in[13]
*120 la_data_in[14]
*121 la_data_in[15]
*122 la_data_in[16]
*123 la_data_in[17]
*124 la_data_in[18]
*125 la_data_in[19]
*126 la_data_in[1]
*127 la_data_in[20]
*128 la_data_in[21]
*129 la_data_in[22]
*130 la_data_in[23]
*131 la_data_in[24]
*132 la_data_in[25]
*133 la_data_in[26]
*134 la_data_in[27]
*135 la_data_in[28]
*136 la_data_in[29]
*137 la_data_in[2]
*138 la_data_in[30]
*139 la_data_in[31]
*140 la_data_in[32]
*141 la_data_in[33]
*142 la_data_in[34]
*143 la_data_in[35]
*144 la_data_in[36]
*145 la_data_in[37]
*146 la_data_in[38]
*147 la_data_in[39]
*148 la_data_in[3]
*149 la_data_in[40]
*150 la_data_in[41]
*151 la_data_in[42]
*152 la_data_in[43]
*153 la_data_in[44]
*154 la_data_in[45]
*155 la_data_in[46]
*156 la_data_in[47]
*157 la_data_in[48]
*158 la_data_in[49]
*159 la_data_in[4]
*160 la_data_in[50]
*161 la_data_in[51]
*162 la_data_in[52]
*163 la_data_in[53]
*164 la_data_in[54]
*165 la_data_in[55]
*166 la_data_in[56]
*167 la_data_in[57]
*168 la_data_in[58]
*169 la_data_in[59]
*170 la_data_in[5]
*171 la_data_in[60]
*172 la_data_in[61]
*173 la_data_in[62]
*174 la_data_in[63]
*175 la_data_in[6]
*176 la_data_in[7]
*177 la_data_in[8]
*178 la_data_in[9]
*179 net17
*180 net27
*181 net28
*182 net29
*183 net30
*184 net31
*185 net32
*186 net33
*187 net34
*188 net35
*189 net36
*190 net18
*191 net37
*192 net38
*193 net39
*194 net40
*195 net41
*196 net42
*197 net43
*198 net44
*199 net45
*200 net46
*201 net19
*202 net47
*203 net48
*204 net49
*205 net50
*206 net51
*207 net52
*208 net53
*209 net54
*210 net55
*211 net56
*212 net20
*213 net57
*214 net58
*215 net59
*216 net60
*217 net61
*218 net62
*219 net63
*220 net64
*221 net65
*222 net66
*223 net21
*224 net67
*225 net68
*226 net69
*227 net70
*228 net71
*229 net72
*230 net73
*231 net74
*232 net75
*233 net76
*234 net22
*235 net77
*236 net78
*237 net79
*238 net80
*239 net23
*240 net24
*241 net25
*242 net26
*243 la_oenb[0]
*244 la_oenb[10]
*245 la_oenb[11]
*246 la_oenb[12]
*247 la_oenb[13]
*248 la_oenb[14]
*249 la_oenb[15]
*250 la_oenb[16]
*251 la_oenb[17]
*252 la_oenb[18]
*253 la_oenb[19]
*254 la_oenb[1]
*255 la_oenb[20]
*256 la_oenb[21]
*257 la_oenb[22]
*258 la_oenb[23]
*259 la_oenb[24]
*260 la_oenb[25]
*261 la_oenb[26]
*262 la_oenb[27]
*263 la_oenb[28]
*264 la_oenb[29]
*265 la_oenb[2]
*266 la_oenb[30]
*267 la_oenb[31]
*268 la_oenb[32]
*269 la_oenb[33]
*270 la_oenb[34]
*271 la_oenb[35]
*272 la_oenb[36]
*273 la_oenb[37]
*274 la_oenb[38]
*275 la_oenb[39]
*276 la_oenb[3]
*277 la_oenb[40]
*278 la_oenb[41]
*279 la_oenb[42]
*280 la_oenb[43]
*281 la_oenb[44]
*282 la_oenb[45]
*283 la_oenb[46]
*284 la_oenb[47]
*285 la_oenb[48]
*286 la_oenb[49]
*287 la_oenb[4]
*288 la_oenb[50]
*289 la_oenb[51]
*290 la_oenb[52]
*291 la_oenb[53]
*292 la_oenb[54]
*293 la_oenb[55]
*294 la_oenb[56]
*295 la_oenb[57]
*296 la_oenb[58]
*297 la_oenb[59]
*298 la_oenb[5]
*299 la_oenb[60]
*300 la_oenb[61]
*301 la_oenb[62]
*302 la_oenb[63]
*303 la_oenb[6]
*304 la_oenb[7]
*305 la_oenb[8]
*306 la_oenb[9]
*307 user_clock2
*308 net149
*309 net150
*310 net151
*313 wb_clk_i
*314 wb_rst_i
*315 net152
*316 wbs_adr_i[0]
*317 wbs_adr_i[10]
*318 wbs_adr_i[11]
*319 wbs_adr_i[12]
*320 wbs_adr_i[13]
*321 wbs_adr_i[14]
*322 wbs_adr_i[15]
*323 wbs_adr_i[16]
*324 wbs_adr_i[17]
*325 wbs_adr_i[18]
*326 wbs_adr_i[19]
*327 wbs_adr_i[1]
*328 wbs_adr_i[20]
*329 wbs_adr_i[21]
*330 wbs_adr_i[22]
*331 wbs_adr_i[23]
*332 wbs_adr_i[24]
*333 wbs_adr_i[25]
*334 wbs_adr_i[26]
*335 wbs_adr_i[27]
*336 wbs_adr_i[28]
*337 wbs_adr_i[29]
*338 wbs_adr_i[2]
*339 wbs_adr_i[30]
*340 wbs_adr_i[31]
*341 wbs_adr_i[3]
*342 wbs_adr_i[4]
*343 wbs_adr_i[5]
*344 wbs_adr_i[6]
*345 wbs_adr_i[7]
*346 wbs_adr_i[8]
*347 wbs_adr_i[9]
*348 wbs_cyc_i
*349 wbs_dat_i[0]
*350 wbs_dat_i[10]
*351 wbs_dat_i[11]
*352 wbs_dat_i[12]
*353 wbs_dat_i[13]
*354 wbs_dat_i[14]
*355 wbs_dat_i[15]
*356 wbs_dat_i[16]
*357 wbs_dat_i[17]
*358 wbs_dat_i[18]
*359 wbs_dat_i[19]
*360 wbs_dat_i[1]
*361 wbs_dat_i[20]
*362 wbs_dat_i[21]
*363 wbs_dat_i[22]
*364 wbs_dat_i[23]
*365 wbs_dat_i[24]
*366 wbs_dat_i[25]
*367 wbs_dat_i[26]
*368 wbs_dat_i[27]
*369 wbs_dat_i[28]
*370 wbs_dat_i[29]
*371 wbs_dat_i[2]
*372 wbs_dat_i[30]
*373 wbs_dat_i[31]
*374 wbs_dat_i[3]
*375 wbs_dat_i[4]
*376 wbs_dat_i[5]
*377 wbs_dat_i[6]
*378 wbs_dat_i[7]
*379 wbs_dat_i[8]
*380 wbs_dat_i[9]
*381 net153
*382 net163
*383 net164
*384 net165
*385 net166
*386 net167
*387 net168
*388 net169
*389 net170
*390 net171
*391 net172
*392 net154
*393 net173
*394 net174
*395 net175
*396 net176
*397 net177
*398 net178
*399 net179
*400 net180
*401 net181
*402 net182
*403 net155
*404 net183
*405 net184
*406 net156
*407 net157
*408 net158
*409 net159
*410 net160
*411 net161
*412 net162
*413 wbs_sel_i[0]
*414 wbs_sel_i[1]
*415 wbs_sel_i[2]
*416 wbs_sel_i[3]
*417 wbs_stb_i
*418 wbs_we_i
*419 _000_
*420 _001_
*421 _002_
*422 _003_
*423 net1
*424 net10
*425 net11
*426 net12
*427 net13
*428 net14
*429 net15
*430 net16
*431 net2
*432 net3
*433 net4
*434 net5
*435 net6
*436 net7
*437 net8
*438 net9
*439 ANTENNA__004__I
*440 ANTENNA__005__A2
*441 ANTENNA__006__A1
*442 ANTENNA__006__A2
*443 ANTENNA__007__I
*444 ANTENNA__008__I
*445 ANTENNA__009__I
*446 ANTENNA__010__A1
*447 ANTENNA__010__A2
*448 ANTENNA__011__A1
*449 ANTENNA__011__A2
*450 ANTENNA__011__B
*451 ANTENNA__013__A2
*452 ANTENNA__014__CLK
*453 ANTENNA__014__D
*454 ANTENNA__015__CLK
*455 ANTENNA__015__D
*456 ANTENNA_input1_I
*457 ANTENNA_input2_I
*458 ANTENNA_input3_I
*459 ANTENNA_input4_I
*460 ANTENNA_input5_I
*461 ANTENNA_input6_I
*462 ANTENNA_input7_I
*463 ANTENNA_input8_I
*464 ANTENNA_output10_I
*465 ANTENNA_output11_I
*466 ANTENNA_output12_I
*467 ANTENNA_output13_I
*468 ANTENNA_output14_I
*469 ANTENNA_output15_I
*470 ANTENNA_output16_I
*471 ANTENNA_output9_I
*472 FILLER_0_1001
*473 FILLER_0_1009
*474 FILLER_0_1013
*475 FILLER_0_1017
*476 FILLER_0_1022
*477 FILLER_0_1030
*478 FILLER_0_1032
*479 FILLER_0_1037
*480 FILLER_0_1045
*481 FILLER_0_1049
*482 FILLER_0_1052
*483 FILLER_0_107
*484 FILLER_0_1084
*485 FILLER_0_1087
*486 FILLER_0_1092
*487 FILLER_0_1108
*488 FILLER_0_1110
*489 FILLER_0_1115
*490 FILLER_0_1119
*491 FILLER_0_112
*492 FILLER_0_1122
*493 FILLER_0_1126
*494 FILLER_0_1128
*495 FILLER_0_1133
*496 FILLER_0_114
*497 FILLER_0_1141
*498 FILLER_0_1145
*499 FILLER_0_1151
*500 FILLER_0_1157
*501 FILLER_0_1189
*502 FILLER_0_119
*503 FILLER_0_1192
*504 FILLER_0_1224
*505 FILLER_0_1227
*506 FILLER_0_1232
*507 FILLER_0_1248
*508 FILLER_0_1256
*509 FILLER_0_1262
*510 FILLER_0_1294
*511 FILLER_0_1297
*512 FILLER_0_1329
*513 FILLER_0_1332
*514 FILLER_0_1337
*515 FILLER_0_135
*516 FILLER_0_1353
*517 FILLER_0_1361
*518 FILLER_0_1367
*519 FILLER_0_139
*520 FILLER_0_1399
*521 FILLER_0_1402
*522 FILLER_0_1404
*523 FILLER_0_1409
*524 FILLER_0_142
*525 FILLER_0_1425
*526 FILLER_0_1433
*527 FILLER_0_1437
*528 FILLER_0_1445
*529 FILLER_0_1457
*530 FILLER_0_1465
*531 FILLER_0_1469
*532 FILLER_0_1472
*533 FILLER_0_1477
*534 FILLER_0_1493
*535 FILLER_0_15
*536 FILLER_0_150
*537 FILLER_0_1501
*538 FILLER_0_1507
*539 FILLER_0_1515
*540 FILLER_0_1523
*541 FILLER_0_1539
*542 FILLER_0_1542
*543 FILLER_0_1547
*544 FILLER_0_155
*545 FILLER_0_1555
*546 FILLER_0_1558
*547 FILLER_0_1574
*548 FILLER_0_1577
*549 FILLER_0_1589
*550 FILLER_0_1605
*551 FILLER_0_1609
*552 FILLER_0_1612
*553 FILLER_0_1628
*554 FILLER_0_1632
*555 FILLER_0_1637
*556 FILLER_0_1647
*557 FILLER_0_1679
*558 FILLER_0_1682
*559 FILLER_0_171
*560 FILLER_0_1714
*561 FILLER_0_1717
*562 FILLER_0_1722
*563 FILLER_0_1730
*564 FILLER_0_1734
*565 FILLER_0_1739
*566 FILLER_0_1747
*567 FILLER_0_1749
*568 FILLER_0_1752
*569 FILLER_0_1760
*570 FILLER_0_1764
*571 FILLER_0_1769
*572 FILLER_0_177
*573 FILLER_0_1787
*574 FILLER_0_1795
*575 FILLER_0_1799
*576 FILLER_0_1805
*577 FILLER_0_1817
*578 FILLER_0_1819
*579 FILLER_0_1822
*580 FILLER_0_1838
*581 FILLER_0_1846
*582 FILLER_0_1850
*583 FILLER_0_1854
*584 FILLER_0_1857
*585 FILLER_0_1872
*586 FILLER_0_1876
*587 FILLER_0_1878
*588 FILLER_0_1883
*589 FILLER_0_1887
*590 FILLER_0_1889
*591 FILLER_0_1892
*592 FILLER_0_1908
*593 FILLER_0_1912
*594 FILLER_0_1914
*595 FILLER_0_1919
*596 FILLER_0_1923
*597 FILLER_0_1927
*598 FILLER_0_1932
*599 FILLER_0_1936
*600 FILLER_0_195
*601 FILLER_0_199
*602 FILLER_0_2
*603 FILLER_0_207
*604 FILLER_0_209
*605 FILLER_0_212
*606 FILLER_0_23
*607 FILLER_0_244
*608 FILLER_0_247
*609 FILLER_0_279
*610 FILLER_0_282
*611 FILLER_0_31
*612 FILLER_0_314
*613 FILLER_0_317
*614 FILLER_0_333
*615 FILLER_0_341
*616 FILLER_0_347
*617 FILLER_0_349
*618 FILLER_0_352
*619 FILLER_0_360
*620 FILLER_0_365
*621 FILLER_0_37
*622 FILLER_0_373
*623 FILLER_0_377
*624 FILLER_0_383
*625 FILLER_0_387
*626 FILLER_0_395
*627 FILLER_0_401
*628 FILLER_0_417
*629 FILLER_0_419
*630 FILLER_0_422
*631 FILLER_0_426
*632 FILLER_0_431
*633 FILLER_0_439
*634 FILLER_0_443
*635 FILLER_0_449
*636 FILLER_0_453
*637 FILLER_0_457
*638 FILLER_0_473
*639 FILLER_0_479
*640 FILLER_0_487
*641 FILLER_0_489
*642 FILLER_0_492
*643 FILLER_0_497
*644 FILLER_0_513
*645 FILLER_0_521
*646 FILLER_0_527
*647 FILLER_0_559
*648 FILLER_0_562
*649 FILLER_0_567
*650 FILLER_0_583
*651 FILLER_0_587
*652 FILLER_0_593
*653 FILLER_0_597
*654 FILLER_0_613
*655 FILLER_0_621
*656 FILLER_0_629
*657 FILLER_0_632
*658 FILLER_0_636
*659 FILLER_0_641
*660 FILLER_0_657
*661 FILLER_0_667
*662 FILLER_0_671
*663 FILLER_0_677
*664 FILLER_0_685
*665 FILLER_0_689
*666 FILLER_0_69
*667 FILLER_0_695
*668 FILLER_0_699
*669 FILLER_0_7
*670 FILLER_0_702
*671 FILLER_0_707
*672 FILLER_0_715
*673 FILLER_0_719
*674 FILLER_0_72
*675 FILLER_0_725
*676 FILLER_0_733
*677 FILLER_0_737
*678 FILLER_0_769
*679 FILLER_0_772
*680 FILLER_0_777
*681 FILLER_0_793
*682 FILLER_0_80
*683 FILLER_0_801
*684 FILLER_0_807
*685 FILLER_0_815
*686 FILLER_0_821
*687 FILLER_0_837
*688 FILLER_0_839
*689 FILLER_0_84
*690 FILLER_0_842
*691 FILLER_0_874
*692 FILLER_0_877
*693 FILLER_0_881
*694 FILLER_0_887
*695 FILLER_0_89
*696 FILLER_0_895
*697 FILLER_0_899
*698 FILLER_0_905
*699 FILLER_0_909
*700 FILLER_0_912
*701 FILLER_0_916
*702 FILLER_0_918
*703 FILLER_0_923
*704 FILLER_0_939
*705 FILLER_0_943
*706 FILLER_0_947
*707 FILLER_0_979
*708 FILLER_0_982
*709 FILLER_0_990
*710 FILLER_0_994
*711 FILLER_0_996
*712 FILLER_100_101
*713 FILLER_100_1024
*714 FILLER_100_1028
*715 FILLER_100_1031
*716 FILLER_100_105
*717 FILLER_100_108
*718 FILLER_100_1095
*719 FILLER_100_1099
*720 FILLER_100_1102
*721 FILLER_100_1166
*722 FILLER_100_1170
*723 FILLER_100_1173
*724 FILLER_100_1237
*725 FILLER_100_1241
*726 FILLER_100_1244
*727 FILLER_100_1308
*728 FILLER_100_1312
*729 FILLER_100_1315
*730 FILLER_100_1379
*731 FILLER_100_1383
*732 FILLER_100_1386
*733 FILLER_100_1450
*734 FILLER_100_1454
*735 FILLER_100_1457
*736 FILLER_100_1521
*737 FILLER_100_1525
*738 FILLER_100_1528
*739 FILLER_100_1592
*740 FILLER_100_1596
*741 FILLER_100_1599
*742 FILLER_100_1663
*743 FILLER_100_1667
*744 FILLER_100_1670
*745 FILLER_100_172
*746 FILLER_100_1734
*747 FILLER_100_1738
*748 FILLER_100_1741
*749 FILLER_100_176
*750 FILLER_100_179
*751 FILLER_100_1805
*752 FILLER_100_1809
*753 FILLER_100_1812
*754 FILLER_100_1876
*755 FILLER_100_1880
*756 FILLER_100_1883
*757 FILLER_100_1915
*758 FILLER_100_1931
*759 FILLER_100_1935
*760 FILLER_100_1937
*761 FILLER_100_2
*762 FILLER_100_243
*763 FILLER_100_247
*764 FILLER_100_250
*765 FILLER_100_314
*766 FILLER_100_318
*767 FILLER_100_321
*768 FILLER_100_34
*769 FILLER_100_37
*770 FILLER_100_385
*771 FILLER_100_389
*772 FILLER_100_392
*773 FILLER_100_456
*774 FILLER_100_460
*775 FILLER_100_463
*776 FILLER_100_527
*777 FILLER_100_531
*778 FILLER_100_534
*779 FILLER_100_598
*780 FILLER_100_602
*781 FILLER_100_605
*782 FILLER_100_669
*783 FILLER_100_673
*784 FILLER_100_676
*785 FILLER_100_740
*786 FILLER_100_744
*787 FILLER_100_747
*788 FILLER_100_811
*789 FILLER_100_815
*790 FILLER_100_818
*791 FILLER_100_882
*792 FILLER_100_886
*793 FILLER_100_889
*794 FILLER_100_953
*795 FILLER_100_957
*796 FILLER_100_960
*797 FILLER_101_1060
*798 FILLER_101_1064
*799 FILLER_101_1067
*800 FILLER_101_1131
*801 FILLER_101_1135
*802 FILLER_101_1138
*803 FILLER_101_1202
*804 FILLER_101_1206
*805 FILLER_101_1209
*806 FILLER_101_1273
*807 FILLER_101_1277
*808 FILLER_101_1280
*809 FILLER_101_1344
*810 FILLER_101_1348
*811 FILLER_101_1351
*812 FILLER_101_137
*813 FILLER_101_141
*814 FILLER_101_1415
*815 FILLER_101_1419
*816 FILLER_101_1422
*817 FILLER_101_144
*818 FILLER_101_1486
*819 FILLER_101_1490
*820 FILLER_101_1493
*821 FILLER_101_1557
*822 FILLER_101_1561
*823 FILLER_101_1564
*824 FILLER_101_1628
*825 FILLER_101_1632
*826 FILLER_101_1635
*827 FILLER_101_1699
*828 FILLER_101_1703
*829 FILLER_101_1706
*830 FILLER_101_1770
*831 FILLER_101_1774
*832 FILLER_101_1777
*833 FILLER_101_1841
*834 FILLER_101_1845
*835 FILLER_101_1848
*836 FILLER_101_1912
*837 FILLER_101_1916
*838 FILLER_101_1919
*839 FILLER_101_1935
*840 FILLER_101_1937
*841 FILLER_101_2
*842 FILLER_101_208
*843 FILLER_101_212
*844 FILLER_101_215
*845 FILLER_101_279
*846 FILLER_101_283
*847 FILLER_101_286
*848 FILLER_101_350
*849 FILLER_101_354
*850 FILLER_101_357
*851 FILLER_101_421
*852 FILLER_101_425
*853 FILLER_101_428
*854 FILLER_101_492
*855 FILLER_101_496
*856 FILLER_101_499
*857 FILLER_101_563
*858 FILLER_101_567
*859 FILLER_101_570
*860 FILLER_101_634
*861 FILLER_101_638
*862 FILLER_101_641
*863 FILLER_101_66
*864 FILLER_101_70
*865 FILLER_101_705
*866 FILLER_101_709
*867 FILLER_101_712
*868 FILLER_101_73
*869 FILLER_101_776
*870 FILLER_101_780
*871 FILLER_101_783
*872 FILLER_101_847
*873 FILLER_101_851
*874 FILLER_101_854
*875 FILLER_101_918
*876 FILLER_101_922
*877 FILLER_101_925
*878 FILLER_101_989
*879 FILLER_101_993
*880 FILLER_101_996
*881 FILLER_102_101
*882 FILLER_102_1024
*883 FILLER_102_1028
*884 FILLER_102_1031
*885 FILLER_102_105
*886 FILLER_102_108
*887 FILLER_102_1095
*888 FILLER_102_1099
*889 FILLER_102_1102
*890 FILLER_102_1166
*891 FILLER_102_1170
*892 FILLER_102_1173
*893 FILLER_102_1237
*894 FILLER_102_1241
*895 FILLER_102_1244
*896 FILLER_102_1308
*897 FILLER_102_1312
*898 FILLER_102_1315
*899 FILLER_102_1379
*900 FILLER_102_1383
*901 FILLER_102_1386
*902 FILLER_102_1450
*903 FILLER_102_1454
*904 FILLER_102_1457
*905 FILLER_102_1521
*906 FILLER_102_1525
*907 FILLER_102_1528
*908 FILLER_102_1592
*909 FILLER_102_1596
*910 FILLER_102_1599
*911 FILLER_102_1663
*912 FILLER_102_1667
*913 FILLER_102_1670
*914 FILLER_102_172
*915 FILLER_102_1734
*916 FILLER_102_1738
*917 FILLER_102_1741
*918 FILLER_102_176
*919 FILLER_102_179
*920 FILLER_102_1805
*921 FILLER_102_1809
*922 FILLER_102_1812
*923 FILLER_102_1876
*924 FILLER_102_1880
*925 FILLER_102_1883
*926 FILLER_102_1915
*927 FILLER_102_1931
*928 FILLER_102_1937
*929 FILLER_102_2
*930 FILLER_102_243
*931 FILLER_102_247
*932 FILLER_102_250
*933 FILLER_102_314
*934 FILLER_102_318
*935 FILLER_102_321
*936 FILLER_102_34
*937 FILLER_102_37
*938 FILLER_102_385
*939 FILLER_102_389
*940 FILLER_102_392
*941 FILLER_102_456
*942 FILLER_102_460
*943 FILLER_102_463
*944 FILLER_102_527
*945 FILLER_102_531
*946 FILLER_102_534
*947 FILLER_102_598
*948 FILLER_102_602
*949 FILLER_102_605
*950 FILLER_102_669
*951 FILLER_102_673
*952 FILLER_102_676
*953 FILLER_102_740
*954 FILLER_102_744
*955 FILLER_102_747
*956 FILLER_102_811
*957 FILLER_102_815
*958 FILLER_102_818
*959 FILLER_102_882
*960 FILLER_102_886
*961 FILLER_102_889
*962 FILLER_102_953
*963 FILLER_102_957
*964 FILLER_102_960
*965 FILLER_103_1060
*966 FILLER_103_1064
*967 FILLER_103_1067
*968 FILLER_103_1131
*969 FILLER_103_1135
*970 FILLER_103_1138
*971 FILLER_103_1202
*972 FILLER_103_1206
*973 FILLER_103_1209
*974 FILLER_103_1273
*975 FILLER_103_1277
*976 FILLER_103_1280
*977 FILLER_103_1344
*978 FILLER_103_1348
*979 FILLER_103_1351
*980 FILLER_103_137
*981 FILLER_103_141
*982 FILLER_103_1415
*983 FILLER_103_1419
*984 FILLER_103_1422
*985 FILLER_103_144
*986 FILLER_103_1486
*987 FILLER_103_1490
*988 FILLER_103_1493
*989 FILLER_103_1557
*990 FILLER_103_1561
*991 FILLER_103_1564
*992 FILLER_103_1628
*993 FILLER_103_1632
*994 FILLER_103_1635
*995 FILLER_103_1699
*996 FILLER_103_1703
*997 FILLER_103_1706
*998 FILLER_103_1770
*999 FILLER_103_1774
*1000 FILLER_103_1777
*1001 FILLER_103_1841
*1002 FILLER_103_1845
*1003 FILLER_103_1848
*1004 FILLER_103_1912
*1005 FILLER_103_1916
*1006 FILLER_103_1919
*1007 FILLER_103_1935
*1008 FILLER_103_1937
*1009 FILLER_103_2
*1010 FILLER_103_208
*1011 FILLER_103_212
*1012 FILLER_103_215
*1013 FILLER_103_279
*1014 FILLER_103_283
*1015 FILLER_103_286
*1016 FILLER_103_350
*1017 FILLER_103_354
*1018 FILLER_103_357
*1019 FILLER_103_421
*1020 FILLER_103_425
*1021 FILLER_103_428
*1022 FILLER_103_492
*1023 FILLER_103_496
*1024 FILLER_103_499
*1025 FILLER_103_563
*1026 FILLER_103_567
*1027 FILLER_103_570
*1028 FILLER_103_634
*1029 FILLER_103_638
*1030 FILLER_103_641
*1031 FILLER_103_66
*1032 FILLER_103_70
*1033 FILLER_103_705
*1034 FILLER_103_709
*1035 FILLER_103_712
*1036 FILLER_103_73
*1037 FILLER_103_776
*1038 FILLER_103_780
*1039 FILLER_103_783
*1040 FILLER_103_847
*1041 FILLER_103_851
*1042 FILLER_103_854
*1043 FILLER_103_918
*1044 FILLER_103_922
*1045 FILLER_103_925
*1046 FILLER_103_989
*1047 FILLER_103_993
*1048 FILLER_103_996
*1049 FILLER_104_101
*1050 FILLER_104_1024
*1051 FILLER_104_1028
*1052 FILLER_104_1031
*1053 FILLER_104_105
*1054 FILLER_104_108
*1055 FILLER_104_1095
*1056 FILLER_104_1099
*1057 FILLER_104_1102
*1058 FILLER_104_1166
*1059 FILLER_104_1170
*1060 FILLER_104_1173
*1061 FILLER_104_1237
*1062 FILLER_104_1241
*1063 FILLER_104_1244
*1064 FILLER_104_1308
*1065 FILLER_104_1312
*1066 FILLER_104_1315
*1067 FILLER_104_1379
*1068 FILLER_104_1383
*1069 FILLER_104_1386
*1070 FILLER_104_1450
*1071 FILLER_104_1454
*1072 FILLER_104_1457
*1073 FILLER_104_1521
*1074 FILLER_104_1525
*1075 FILLER_104_1528
*1076 FILLER_104_1592
*1077 FILLER_104_1596
*1078 FILLER_104_1599
*1079 FILLER_104_1663
*1080 FILLER_104_1667
*1081 FILLER_104_1670
*1082 FILLER_104_172
*1083 FILLER_104_1734
*1084 FILLER_104_1738
*1085 FILLER_104_1741
*1086 FILLER_104_176
*1087 FILLER_104_179
*1088 FILLER_104_1805
*1089 FILLER_104_1809
*1090 FILLER_104_1812
*1091 FILLER_104_1876
*1092 FILLER_104_1880
*1093 FILLER_104_1883
*1094 FILLER_104_1915
*1095 FILLER_104_1931
*1096 FILLER_104_1935
*1097 FILLER_104_1937
*1098 FILLER_104_2
*1099 FILLER_104_243
*1100 FILLER_104_247
*1101 FILLER_104_250
*1102 FILLER_104_314
*1103 FILLER_104_318
*1104 FILLER_104_321
*1105 FILLER_104_34
*1106 FILLER_104_37
*1107 FILLER_104_385
*1108 FILLER_104_389
*1109 FILLER_104_392
*1110 FILLER_104_456
*1111 FILLER_104_460
*1112 FILLER_104_463
*1113 FILLER_104_527
*1114 FILLER_104_531
*1115 FILLER_104_534
*1116 FILLER_104_598
*1117 FILLER_104_602
*1118 FILLER_104_605
*1119 FILLER_104_669
*1120 FILLER_104_673
*1121 FILLER_104_676
*1122 FILLER_104_740
*1123 FILLER_104_744
*1124 FILLER_104_747
*1125 FILLER_104_811
*1126 FILLER_104_815
*1127 FILLER_104_818
*1128 FILLER_104_882
*1129 FILLER_104_886
*1130 FILLER_104_889
*1131 FILLER_104_953
*1132 FILLER_104_957
*1133 FILLER_104_960
*1134 FILLER_105_1060
*1135 FILLER_105_1064
*1136 FILLER_105_1067
*1137 FILLER_105_1131
*1138 FILLER_105_1135
*1139 FILLER_105_1138
*1140 FILLER_105_1202
*1141 FILLER_105_1206
*1142 FILLER_105_1209
*1143 FILLER_105_1273
*1144 FILLER_105_1277
*1145 FILLER_105_1280
*1146 FILLER_105_1344
*1147 FILLER_105_1348
*1148 FILLER_105_1351
*1149 FILLER_105_137
*1150 FILLER_105_141
*1151 FILLER_105_1415
*1152 FILLER_105_1419
*1153 FILLER_105_1422
*1154 FILLER_105_144
*1155 FILLER_105_1486
*1156 FILLER_105_1490
*1157 FILLER_105_1493
*1158 FILLER_105_1557
*1159 FILLER_105_1561
*1160 FILLER_105_1564
*1161 FILLER_105_1628
*1162 FILLER_105_1632
*1163 FILLER_105_1635
*1164 FILLER_105_1699
*1165 FILLER_105_1703
*1166 FILLER_105_1706
*1167 FILLER_105_1770
*1168 FILLER_105_1774
*1169 FILLER_105_1777
*1170 FILLER_105_1841
*1171 FILLER_105_1845
*1172 FILLER_105_1848
*1173 FILLER_105_1912
*1174 FILLER_105_1916
*1175 FILLER_105_1919
*1176 FILLER_105_1935
*1177 FILLER_105_1937
*1178 FILLER_105_2
*1179 FILLER_105_208
*1180 FILLER_105_212
*1181 FILLER_105_215
*1182 FILLER_105_279
*1183 FILLER_105_283
*1184 FILLER_105_286
*1185 FILLER_105_350
*1186 FILLER_105_354
*1187 FILLER_105_357
*1188 FILLER_105_421
*1189 FILLER_105_425
*1190 FILLER_105_428
*1191 FILLER_105_492
*1192 FILLER_105_496
*1193 FILLER_105_499
*1194 FILLER_105_563
*1195 FILLER_105_567
*1196 FILLER_105_570
*1197 FILLER_105_634
*1198 FILLER_105_638
*1199 FILLER_105_641
*1200 FILLER_105_7
*1201 FILLER_105_705
*1202 FILLER_105_709
*1203 FILLER_105_712
*1204 FILLER_105_73
*1205 FILLER_105_776
*1206 FILLER_105_780
*1207 FILLER_105_783
*1208 FILLER_105_847
*1209 FILLER_105_851
*1210 FILLER_105_854
*1211 FILLER_105_918
*1212 FILLER_105_922
*1213 FILLER_105_925
*1214 FILLER_105_989
*1215 FILLER_105_993
*1216 FILLER_105_996
*1217 FILLER_106_101
*1218 FILLER_106_1024
*1219 FILLER_106_1028
*1220 FILLER_106_1031
*1221 FILLER_106_105
*1222 FILLER_106_108
*1223 FILLER_106_1095
*1224 FILLER_106_1099
*1225 FILLER_106_1102
*1226 FILLER_106_1166
*1227 FILLER_106_1170
*1228 FILLER_106_1173
*1229 FILLER_106_1237
*1230 FILLER_106_1241
*1231 FILLER_106_1244
*1232 FILLER_106_1308
*1233 FILLER_106_1312
*1234 FILLER_106_1315
*1235 FILLER_106_1379
*1236 FILLER_106_1383
*1237 FILLER_106_1386
*1238 FILLER_106_1450
*1239 FILLER_106_1454
*1240 FILLER_106_1457
*1241 FILLER_106_1521
*1242 FILLER_106_1525
*1243 FILLER_106_1528
*1244 FILLER_106_1592
*1245 FILLER_106_1596
*1246 FILLER_106_1599
*1247 FILLER_106_1663
*1248 FILLER_106_1667
*1249 FILLER_106_1670
*1250 FILLER_106_172
*1251 FILLER_106_1734
*1252 FILLER_106_1738
*1253 FILLER_106_1741
*1254 FILLER_106_176
*1255 FILLER_106_179
*1256 FILLER_106_18
*1257 FILLER_106_1805
*1258 FILLER_106_1809
*1259 FILLER_106_1812
*1260 FILLER_106_1876
*1261 FILLER_106_1880
*1262 FILLER_106_1883
*1263 FILLER_106_1915
*1264 FILLER_106_1931
*1265 FILLER_106_1935
*1266 FILLER_106_1937
*1267 FILLER_106_2
*1268 FILLER_106_243
*1269 FILLER_106_247
*1270 FILLER_106_250
*1271 FILLER_106_28
*1272 FILLER_106_314
*1273 FILLER_106_318
*1274 FILLER_106_321
*1275 FILLER_106_34
*1276 FILLER_106_37
*1277 FILLER_106_385
*1278 FILLER_106_389
*1279 FILLER_106_392
*1280 FILLER_106_456
*1281 FILLER_106_460
*1282 FILLER_106_463
*1283 FILLER_106_527
*1284 FILLER_106_531
*1285 FILLER_106_534
*1286 FILLER_106_598
*1287 FILLER_106_602
*1288 FILLER_106_605
*1289 FILLER_106_669
*1290 FILLER_106_673
*1291 FILLER_106_676
*1292 FILLER_106_740
*1293 FILLER_106_744
*1294 FILLER_106_747
*1295 FILLER_106_811
*1296 FILLER_106_815
*1297 FILLER_106_818
*1298 FILLER_106_882
*1299 FILLER_106_886
*1300 FILLER_106_889
*1301 FILLER_106_953
*1302 FILLER_106_957
*1303 FILLER_106_960
*1304 FILLER_107_1060
*1305 FILLER_107_1064
*1306 FILLER_107_1067
*1307 FILLER_107_1077
*1308 FILLER_107_1109
*1309 FILLER_107_1125
*1310 FILLER_107_1133
*1311 FILLER_107_1135
*1312 FILLER_107_1138
*1313 FILLER_107_1202
*1314 FILLER_107_1206
*1315 FILLER_107_1209
*1316 FILLER_107_1273
*1317 FILLER_107_1277
*1318 FILLER_107_1280
*1319 FILLER_107_1344
*1320 FILLER_107_1348
*1321 FILLER_107_1351
*1322 FILLER_107_137
*1323 FILLER_107_141
*1324 FILLER_107_1415
*1325 FILLER_107_1419
*1326 FILLER_107_1422
*1327 FILLER_107_144
*1328 FILLER_107_1486
*1329 FILLER_107_1490
*1330 FILLER_107_1493
*1331 FILLER_107_1557
*1332 FILLER_107_1561
*1333 FILLER_107_1564
*1334 FILLER_107_1628
*1335 FILLER_107_1632
*1336 FILLER_107_1635
*1337 FILLER_107_1699
*1338 FILLER_107_1703
*1339 FILLER_107_1706
*1340 FILLER_107_176
*1341 FILLER_107_1770
*1342 FILLER_107_1774
*1343 FILLER_107_1777
*1344 FILLER_107_1841
*1345 FILLER_107_1845
*1346 FILLER_107_1848
*1347 FILLER_107_1912
*1348 FILLER_107_1916
*1349 FILLER_107_1919
*1350 FILLER_107_192
*1351 FILLER_107_1935
*1352 FILLER_107_1937
*1353 FILLER_107_2
*1354 FILLER_107_204
*1355 FILLER_107_208
*1356 FILLER_107_212
*1357 FILLER_107_215
*1358 FILLER_107_279
*1359 FILLER_107_283
*1360 FILLER_107_286
*1361 FILLER_107_350
*1362 FILLER_107_354
*1363 FILLER_107_357
*1364 FILLER_107_421
*1365 FILLER_107_425
*1366 FILLER_107_428
*1367 FILLER_107_492
*1368 FILLER_107_496
*1369 FILLER_107_499
*1370 FILLER_107_5
*1371 FILLER_107_563
*1372 FILLER_107_567
*1373 FILLER_107_570
*1374 FILLER_107_634
*1375 FILLER_107_638
*1376 FILLER_107_641
*1377 FILLER_107_69
*1378 FILLER_107_705
*1379 FILLER_107_709
*1380 FILLER_107_712
*1381 FILLER_107_73
*1382 FILLER_107_776
*1383 FILLER_107_780
*1384 FILLER_107_783
*1385 FILLER_107_847
*1386 FILLER_107_851
*1387 FILLER_107_854
*1388 FILLER_107_918
*1389 FILLER_107_922
*1390 FILLER_107_925
*1391 FILLER_107_989
*1392 FILLER_107_993
*1393 FILLER_107_996
*1394 FILLER_108_101
*1395 FILLER_108_1024
*1396 FILLER_108_1028
*1397 FILLER_108_1031
*1398 FILLER_108_1047
*1399 FILLER_108_105
*1400 FILLER_108_1055
*1401 FILLER_108_1059
*1402 FILLER_108_1063
*1403 FILLER_108_1073
*1404 FILLER_108_108
*1405 FILLER_108_1080
*1406 FILLER_108_1084
*1407 FILLER_108_1102
*1408 FILLER_108_1166
*1409 FILLER_108_1170
*1410 FILLER_108_1173
*1411 FILLER_108_1237
*1412 FILLER_108_1241
*1413 FILLER_108_1244
*1414 FILLER_108_1308
*1415 FILLER_108_1312
*1416 FILLER_108_1315
*1417 FILLER_108_1379
*1418 FILLER_108_1383
*1419 FILLER_108_1386
*1420 FILLER_108_140
*1421 FILLER_108_1450
*1422 FILLER_108_1454
*1423 FILLER_108_1457
*1424 FILLER_108_1521
*1425 FILLER_108_1525
*1426 FILLER_108_1528
*1427 FILLER_108_156
*1428 FILLER_108_1592
*1429 FILLER_108_1596
*1430 FILLER_108_1599
*1431 FILLER_108_164
*1432 FILLER_108_1663
*1433 FILLER_108_1667
*1434 FILLER_108_1670
*1435 FILLER_108_168
*1436 FILLER_108_172
*1437 FILLER_108_1734
*1438 FILLER_108_1738
*1439 FILLER_108_1741
*1440 FILLER_108_176
*1441 FILLER_108_179
*1442 FILLER_108_1805
*1443 FILLER_108_1809
*1444 FILLER_108_1812
*1445 FILLER_108_1876
*1446 FILLER_108_1880
*1447 FILLER_108_1883
*1448 FILLER_108_1915
*1449 FILLER_108_1931
*1450 FILLER_108_1937
*1451 FILLER_108_2
*1452 FILLER_108_209
*1453 FILLER_108_241
*1454 FILLER_108_245
*1455 FILLER_108_247
*1456 FILLER_108_25
*1457 FILLER_108_250
*1458 FILLER_108_314
*1459 FILLER_108_318
*1460 FILLER_108_321
*1461 FILLER_108_33
*1462 FILLER_108_37
*1463 FILLER_108_385
*1464 FILLER_108_389
*1465 FILLER_108_392
*1466 FILLER_108_456
*1467 FILLER_108_460
*1468 FILLER_108_463
*1469 FILLER_108_527
*1470 FILLER_108_531
*1471 FILLER_108_534
*1472 FILLER_108_598
*1473 FILLER_108_602
*1474 FILLER_108_605
*1475 FILLER_108_669
*1476 FILLER_108_673
*1477 FILLER_108_676
*1478 FILLER_108_740
*1479 FILLER_108_744
*1480 FILLER_108_747
*1481 FILLER_108_811
*1482 FILLER_108_815
*1483 FILLER_108_818
*1484 FILLER_108_882
*1485 FILLER_108_886
*1486 FILLER_108_889
*1487 FILLER_108_9
*1488 FILLER_108_953
*1489 FILLER_108_957
*1490 FILLER_108_960
*1491 FILLER_109_1060
*1492 FILLER_109_1064
*1493 FILLER_109_1067
*1494 FILLER_109_1073
*1495 FILLER_109_1077
*1496 FILLER_109_1081
*1497 FILLER_109_1113
*1498 FILLER_109_1129
*1499 FILLER_109_1133
*1500 FILLER_109_1135
*1501 FILLER_109_1138
*1502 FILLER_109_1202
*1503 FILLER_109_1206
*1504 FILLER_109_1209
*1505 FILLER_109_1273
*1506 FILLER_109_1277
*1507 FILLER_109_1280
*1508 FILLER_109_1344
*1509 FILLER_109_1348
*1510 FILLER_109_1351
*1511 FILLER_109_137
*1512 FILLER_109_141
*1513 FILLER_109_1415
*1514 FILLER_109_1419
*1515 FILLER_109_1422
*1516 FILLER_109_144
*1517 FILLER_109_1486
*1518 FILLER_109_1490
*1519 FILLER_109_1493
*1520 FILLER_109_1557
*1521 FILLER_109_1561
*1522 FILLER_109_1564
*1523 FILLER_109_1628
*1524 FILLER_109_1632
*1525 FILLER_109_1635
*1526 FILLER_109_1699
*1527 FILLER_109_1703
*1528 FILLER_109_1706
*1529 FILLER_109_1770
*1530 FILLER_109_1774
*1531 FILLER_109_1777
*1532 FILLER_109_1841
*1533 FILLER_109_1845
*1534 FILLER_109_1848
*1535 FILLER_109_1912
*1536 FILLER_109_1916
*1537 FILLER_109_1919
*1538 FILLER_109_1935
*1539 FILLER_109_1937
*1540 FILLER_109_2
*1541 FILLER_109_208
*1542 FILLER_109_212
*1543 FILLER_109_215
*1544 FILLER_109_279
*1545 FILLER_109_283
*1546 FILLER_109_286
*1547 FILLER_109_350
*1548 FILLER_109_354
*1549 FILLER_109_357
*1550 FILLER_109_421
*1551 FILLER_109_425
*1552 FILLER_109_428
*1553 FILLER_109_492
*1554 FILLER_109_496
*1555 FILLER_109_499
*1556 FILLER_109_563
*1557 FILLER_109_567
*1558 FILLER_109_570
*1559 FILLER_109_634
*1560 FILLER_109_638
*1561 FILLER_109_641
*1562 FILLER_109_66
*1563 FILLER_109_70
*1564 FILLER_109_705
*1565 FILLER_109_709
*1566 FILLER_109_712
*1567 FILLER_109_73
*1568 FILLER_109_776